[root]
type=Root
children=system
eventq_index=0
full_system=false
sim_quantum=0
time_sync_enable=false
time_sync_period=100000000000
time_sync_spin_threshold=100000000

[system]
type=System
children=clk_domain cpu cpu_clk_domain cpu_voltage_domain dvfs_handler gpu mem_ctrls ruby ruby_clk_domain sys_port_proxy voltage_domain
boot_osflags=a
cache_line_size=128
clk_domain=system.clk_domain
eventq_index=0
init_param=0
kernel=
kernel_addr_check=true
load_addr_mask=1099511627775
load_offset=0
mem_mode=timing
mem_ranges=0:2147483647
memories=system.mem_ctrls system.ruby.phys_mem
num_work_ids=16
readfile=
symbolfile=
work_begin_ckpt_count=0
work_begin_cpu_id_exit=-1
work_begin_exit_count=0
work_cpus_ckpt_count=0
work_end_ckpt_count=0
work_end_exit_count=0
work_item_id=-1
system_port=system.sys_port_proxy.slave[0]

[system.clk_domain]
type=SrcClockDomain
clock=1000
domain_id=-1
eventq_index=0
init_perf_level=0
voltage_domain=system.voltage_domain

[system.cpu]
type=TimingSimpleCPU
children=apic_clk_domain dtb interrupts isa itb tracer workload
branchPred=Null
checker=Null
clk_domain=system.cpu_clk_domain
cpu_id=0
do_checkpoint_insts=true
do_quiesce=true
do_statistics_insts=true
dtb=system.cpu.dtb
eventq_index=0
function_trace=false
function_trace_start=0
interrupts=system.cpu.interrupts
isa=system.cpu.isa
itb=system.cpu.itb
max_insts_all_threads=0
max_insts_any_thread=0
max_loads_all_threads=0
max_loads_any_thread=0
numThreads=1
profile=0
progress_interval=0
simpoint_start_insts=
socket_id=0
switched_out=false
system=system
tracer=system.cpu.tracer
workload=system.cpu.workload
dcache_port=system.ruby.l1_cntrl0.sequencer.slave[1]
icache_port=system.ruby.l1_cntrl0.sequencer.slave[0]

[system.cpu.apic_clk_domain]
type=DerivedClockDomain
clk_divider=16
clk_domain=system.cpu_clk_domain
eventq_index=0

[system.cpu.dtb]
type=X86TLB
children=walker
eventq_index=0
size=64
walker=system.cpu.dtb.walker

[system.cpu.dtb.walker]
type=X86PagetableWalker
bypass_l1=false
clk_domain=system.cpu_clk_domain
eventq_index=0
num_squash_per_cycle=4
system=system
port=system.ruby.l1_cntrl0.sequencer.slave[3]

[system.cpu.interrupts]
type=X86LocalApic
clk_domain=system.cpu.apic_clk_domain
eventq_index=0
int_latency=1000
pio_addr=2305843009213693952
pio_latency=100000
system=system
int_master=system.ruby.l1_cntrl0.sequencer.slave[4]
int_slave=system.ruby.l1_cntrl0.sequencer.master[1]
pio=system.ruby.l1_cntrl0.sequencer.master[0]

[system.cpu.isa]
type=X86ISA
eventq_index=0

[system.cpu.itb]
type=X86TLB
children=walker
eventq_index=0
size=64
walker=system.cpu.itb.walker

[system.cpu.itb.walker]
type=X86PagetableWalker
bypass_l1=false
clk_domain=system.cpu_clk_domain
eventq_index=0
num_squash_per_cycle=4
system=system
port=system.ruby.l1_cntrl0.sequencer.slave[2]

[system.cpu.tracer]
type=ExeTracer
eventq_index=0

[system.cpu.workload]
type=LiveProcess
cmd=hello
cwd=
drivers=
egid=100
env=
errout=cerr
euid=100
eventq_index=0
executable=/home/joel/research/gem5/gem5-gpu-latest/gem5-gpu/tests/test-progs/hello/bin/x86/linux/hello
gid=100
input=cin
kvmInSE=false
max_stack_size=67108864
output=cout
pid=100
ppid=99
simpoint=0
system=system
uid=100
useArchPT=false

[system.cpu_clk_domain]
type=SrcClockDomain
clock=500
domain_id=-1
eventq_index=0
init_perf_level=0
voltage_domain=system.cpu_voltage_domain

[system.cpu_voltage_domain]
type=VoltageDomain
eventq_index=0
voltage=1.000000

[system.dvfs_handler]
type=DVFSHandler
domains=
enable=false
eventq_index=0
sys_clk_domain=system.clk_domain
transition_latency=100000000

[system.gpu]
type=CudaGPU
children=ce clk_domain cores_wrapper dram_wrapper icnt_wrapper l2_wrapper shader_cores0 shader_cores1 shader_cores2 shader_cores3 shader_mmu
clk_domain=system.gpu.clk_domain
config_path=build/X86_VI_hammer_GPU/tests/opt/quick/se_gpu/00.hello/x86/linux/gem5-gpu-ruby-VI_hammer/gpgpusim.config
cores_wrapper=system.gpu.cores_wrapper
dram_wrapper=system.gpu.dram_wrapper
dump_kernel_stats=false
eventq_index=0
gpu_memory_range=0:2147483647
icnt_wrapper=system.gpu.icnt_wrapper
kernel_launch_delay=2.5e-07
kernel_return_delay=1e-07
l2_wrapper=system.gpu.l2_wrapper
manage_gpu_memory=false
ruby=system.ruby
shader_mmu=system.gpu.shader_mmu
shared_mem_delay=1
stats_filename=gpu_stats.txt
sys=system
warp_size=32

[system.gpu.ce]
type=GPUCopyEngine
children=device_dtb host_dtb
clk_domain=system.gpu.clk_domain
device_dtb=system.gpu.ce.device_dtb
driver_delay=5000000
eventq_index=0
gpu=system.gpu
host_dtb=system.gpu.ce.host_dtb
id=-1
stats_filename=ce_stats.txt
sys=system
device_port=system.ruby.l1_cntrl_ce.sequencer.slave[1]
host_port=system.ruby.l1_cntrl_ce.sequencer.slave[0]

[system.gpu.ce.device_dtb]
type=ShaderTLB
access_host_pagetable=false
associativity=4
entries=0
eventq_index=0
gpu=system.gpu
hit_latency=1

[system.gpu.ce.host_dtb]
type=ShaderTLB
access_host_pagetable=true
associativity=4
entries=0
eventq_index=0
gpu=system.gpu
hit_latency=1

[system.gpu.clk_domain]
type=SrcClockDomain
children=voltage_domain
clock=1429
domain_id=-1
eventq_index=0
init_perf_level=0
voltage_domain=system.gpu.clk_domain.voltage_domain

[system.gpu.clk_domain.voltage_domain]
type=VoltageDomain
eventq_index=0
voltage=1.000000

[system.gpu.cores_wrapper]
type=GPGPUSimComponentWrapper
clk_domain=system.gpu.clk_domain
eventq_index=0

[system.gpu.dram_wrapper]
type=GPGPUSimComponentWrapper
children=clk_domain
clk_domain=system.gpu.dram_wrapper.clk_domain
eventq_index=0

[system.gpu.dram_wrapper.clk_domain]
type=SrcClockDomain
clock=541
domain_id=-1
eventq_index=0
init_perf_level=0
voltage_domain=system.gpu.clk_domain.voltage_domain

[system.gpu.icnt_wrapper]
type=GPGPUSimComponentWrapper
children=clk_domain
clk_domain=system.gpu.icnt_wrapper.clk_domain
eventq_index=0

[system.gpu.icnt_wrapper.clk_domain]
type=DerivedClockDomain
clk_divider=2
clk_domain=system.gpu.clk_domain
eventq_index=0

[system.gpu.l2_wrapper]
type=GPGPUSimComponentWrapper
clk_domain=system.gpu.clk_domain
eventq_index=0

[system.gpu.shader_cores0]
type=CudaCore
children=itb lsq
clk_domain=system.gpu.clk_domain
eventq_index=0
gpu=system.gpu
id=0
itb=system.gpu.shader_cores0.itb
sys=system
warp_contexts=48
inst_port=system.ruby.l1_cntrl_sp00.sequencer.slave[0]
lsq_ctrl_port=system.gpu.shader_cores0.lsq.control_port
lsq_port=system.gpu.shader_cores0.lsq.lane_port[0] system.gpu.shader_cores0.lsq.lane_port[1] system.gpu.shader_cores0.lsq.lane_port[2] system.gpu.shader_cores0.lsq.lane_port[3] system.gpu.shader_cores0.lsq.lane_port[4] system.gpu.shader_cores0.lsq.lane_port[5] system.gpu.shader_cores0.lsq.lane_port[6] system.gpu.shader_cores0.lsq.lane_port[7] system.gpu.shader_cores0.lsq.lane_port[8] system.gpu.shader_cores0.lsq.lane_port[9] system.gpu.shader_cores0.lsq.lane_port[10] system.gpu.shader_cores0.lsq.lane_port[11] system.gpu.shader_cores0.lsq.lane_port[12] system.gpu.shader_cores0.lsq.lane_port[13] system.gpu.shader_cores0.lsq.lane_port[14] system.gpu.shader_cores0.lsq.lane_port[15] system.gpu.shader_cores0.lsq.lane_port[16] system.gpu.shader_cores0.lsq.lane_port[17] system.gpu.shader_cores0.lsq.lane_port[18] system.gpu.shader_cores0.lsq.lane_port[19] system.gpu.shader_cores0.lsq.lane_port[20] system.gpu.shader_cores0.lsq.lane_port[21] system.gpu.shader_cores0.lsq.lane_port[22] system.gpu.shader_cores0.lsq.lane_port[23] system.gpu.shader_cores0.lsq.lane_port[24] system.gpu.shader_cores0.lsq.lane_port[25] system.gpu.shader_cores0.lsq.lane_port[26] system.gpu.shader_cores0.lsq.lane_port[27] system.gpu.shader_cores0.lsq.lane_port[28] system.gpu.shader_cores0.lsq.lane_port[29] system.gpu.shader_cores0.lsq.lane_port[30] system.gpu.shader_cores0.lsq.lane_port[31]

[system.gpu.shader_cores0.itb]
type=ShaderTLB
access_host_pagetable=false
associativity=4
entries=0
eventq_index=0
gpu=system.gpu
hit_latency=1

[system.gpu.shader_cores0.lsq]
type=ShaderLSQ
children=data_tlb
cache_line_size=128
clk_domain=system.gpu.clk_domain
data_tlb=system.gpu.shader_cores0.lsq.data_tlb
eject_width=1
eventq_index=0
forward_flush=false
inject_width=1
l1_tag_cycles=4
latency=14
num_warp_inst_buffers=64
warp_contexts=48
warp_size=32
cache_port=system.ruby.l1_cntrl_sp00.sequencer.slave[1]
control_port=system.gpu.shader_cores0.lsq_ctrl_port
lane_port=system.gpu.shader_cores0.lsq_port[0] system.gpu.shader_cores0.lsq_port[1] system.gpu.shader_cores0.lsq_port[2] system.gpu.shader_cores0.lsq_port[3] system.gpu.shader_cores0.lsq_port[4] system.gpu.shader_cores0.lsq_port[5] system.gpu.shader_cores0.lsq_port[6] system.gpu.shader_cores0.lsq_port[7] system.gpu.shader_cores0.lsq_port[8] system.gpu.shader_cores0.lsq_port[9] system.gpu.shader_cores0.lsq_port[10] system.gpu.shader_cores0.lsq_port[11] system.gpu.shader_cores0.lsq_port[12] system.gpu.shader_cores0.lsq_port[13] system.gpu.shader_cores0.lsq_port[14] system.gpu.shader_cores0.lsq_port[15] system.gpu.shader_cores0.lsq_port[16] system.gpu.shader_cores0.lsq_port[17] system.gpu.shader_cores0.lsq_port[18] system.gpu.shader_cores0.lsq_port[19] system.gpu.shader_cores0.lsq_port[20] system.gpu.shader_cores0.lsq_port[21] system.gpu.shader_cores0.lsq_port[22] system.gpu.shader_cores0.lsq_port[23] system.gpu.shader_cores0.lsq_port[24] system.gpu.shader_cores0.lsq_port[25] system.gpu.shader_cores0.lsq_port[26] system.gpu.shader_cores0.lsq_port[27] system.gpu.shader_cores0.lsq_port[28] system.gpu.shader_cores0.lsq_port[29] system.gpu.shader_cores0.lsq_port[30] system.gpu.shader_cores0.lsq_port[31]

[system.gpu.shader_cores0.lsq.data_tlb]
type=ShaderTLB
access_host_pagetable=false
associativity=4
entries=0
eventq_index=0
gpu=system.gpu
hit_latency=1

[system.gpu.shader_cores1]
type=CudaCore
children=itb lsq
clk_domain=system.gpu.clk_domain
eventq_index=0
gpu=system.gpu
id=1
itb=system.gpu.shader_cores1.itb
sys=system
warp_contexts=48
inst_port=system.ruby.l1_cntrl_sp01.sequencer.slave[0]
lsq_ctrl_port=system.gpu.shader_cores1.lsq.control_port
lsq_port=system.gpu.shader_cores1.lsq.lane_port[0] system.gpu.shader_cores1.lsq.lane_port[1] system.gpu.shader_cores1.lsq.lane_port[2] system.gpu.shader_cores1.lsq.lane_port[3] system.gpu.shader_cores1.lsq.lane_port[4] system.gpu.shader_cores1.lsq.lane_port[5] system.gpu.shader_cores1.lsq.lane_port[6] system.gpu.shader_cores1.lsq.lane_port[7] system.gpu.shader_cores1.lsq.lane_port[8] system.gpu.shader_cores1.lsq.lane_port[9] system.gpu.shader_cores1.lsq.lane_port[10] system.gpu.shader_cores1.lsq.lane_port[11] system.gpu.shader_cores1.lsq.lane_port[12] system.gpu.shader_cores1.lsq.lane_port[13] system.gpu.shader_cores1.lsq.lane_port[14] system.gpu.shader_cores1.lsq.lane_port[15] system.gpu.shader_cores1.lsq.lane_port[16] system.gpu.shader_cores1.lsq.lane_port[17] system.gpu.shader_cores1.lsq.lane_port[18] system.gpu.shader_cores1.lsq.lane_port[19] system.gpu.shader_cores1.lsq.lane_port[20] system.gpu.shader_cores1.lsq.lane_port[21] system.gpu.shader_cores1.lsq.lane_port[22] system.gpu.shader_cores1.lsq.lane_port[23] system.gpu.shader_cores1.lsq.lane_port[24] system.gpu.shader_cores1.lsq.lane_port[25] system.gpu.shader_cores1.lsq.lane_port[26] system.gpu.shader_cores1.lsq.lane_port[27] system.gpu.shader_cores1.lsq.lane_port[28] system.gpu.shader_cores1.lsq.lane_port[29] system.gpu.shader_cores1.lsq.lane_port[30] system.gpu.shader_cores1.lsq.lane_port[31]

[system.gpu.shader_cores1.itb]
type=ShaderTLB
access_host_pagetable=false
associativity=4
entries=0
eventq_index=0
gpu=system.gpu
hit_latency=1

[system.gpu.shader_cores1.lsq]
type=ShaderLSQ
children=data_tlb
cache_line_size=128
clk_domain=system.gpu.clk_domain
data_tlb=system.gpu.shader_cores1.lsq.data_tlb
eject_width=1
eventq_index=0
forward_flush=false
inject_width=1
l1_tag_cycles=4
latency=14
num_warp_inst_buffers=64
warp_contexts=48
warp_size=32
cache_port=system.ruby.l1_cntrl_sp01.sequencer.slave[1]
control_port=system.gpu.shader_cores1.lsq_ctrl_port
lane_port=system.gpu.shader_cores1.lsq_port[0] system.gpu.shader_cores1.lsq_port[1] system.gpu.shader_cores1.lsq_port[2] system.gpu.shader_cores1.lsq_port[3] system.gpu.shader_cores1.lsq_port[4] system.gpu.shader_cores1.lsq_port[5] system.gpu.shader_cores1.lsq_port[6] system.gpu.shader_cores1.lsq_port[7] system.gpu.shader_cores1.lsq_port[8] system.gpu.shader_cores1.lsq_port[9] system.gpu.shader_cores1.lsq_port[10] system.gpu.shader_cores1.lsq_port[11] system.gpu.shader_cores1.lsq_port[12] system.gpu.shader_cores1.lsq_port[13] system.gpu.shader_cores1.lsq_port[14] system.gpu.shader_cores1.lsq_port[15] system.gpu.shader_cores1.lsq_port[16] system.gpu.shader_cores1.lsq_port[17] system.gpu.shader_cores1.lsq_port[18] system.gpu.shader_cores1.lsq_port[19] system.gpu.shader_cores1.lsq_port[20] system.gpu.shader_cores1.lsq_port[21] system.gpu.shader_cores1.lsq_port[22] system.gpu.shader_cores1.lsq_port[23] system.gpu.shader_cores1.lsq_port[24] system.gpu.shader_cores1.lsq_port[25] system.gpu.shader_cores1.lsq_port[26] system.gpu.shader_cores1.lsq_port[27] system.gpu.shader_cores1.lsq_port[28] system.gpu.shader_cores1.lsq_port[29] system.gpu.shader_cores1.lsq_port[30] system.gpu.shader_cores1.lsq_port[31]

[system.gpu.shader_cores1.lsq.data_tlb]
type=ShaderTLB
access_host_pagetable=false
associativity=4
entries=0
eventq_index=0
gpu=system.gpu
hit_latency=1

[system.gpu.shader_cores2]
type=CudaCore
children=itb lsq
clk_domain=system.gpu.clk_domain
eventq_index=0
gpu=system.gpu
id=2
itb=system.gpu.shader_cores2.itb
sys=system
warp_contexts=48
inst_port=system.ruby.l1_cntrl_sp02.sequencer.slave[0]
lsq_ctrl_port=system.gpu.shader_cores2.lsq.control_port
lsq_port=system.gpu.shader_cores2.lsq.lane_port[0] system.gpu.shader_cores2.lsq.lane_port[1] system.gpu.shader_cores2.lsq.lane_port[2] system.gpu.shader_cores2.lsq.lane_port[3] system.gpu.shader_cores2.lsq.lane_port[4] system.gpu.shader_cores2.lsq.lane_port[5] system.gpu.shader_cores2.lsq.lane_port[6] system.gpu.shader_cores2.lsq.lane_port[7] system.gpu.shader_cores2.lsq.lane_port[8] system.gpu.shader_cores2.lsq.lane_port[9] system.gpu.shader_cores2.lsq.lane_port[10] system.gpu.shader_cores2.lsq.lane_port[11] system.gpu.shader_cores2.lsq.lane_port[12] system.gpu.shader_cores2.lsq.lane_port[13] system.gpu.shader_cores2.lsq.lane_port[14] system.gpu.shader_cores2.lsq.lane_port[15] system.gpu.shader_cores2.lsq.lane_port[16] system.gpu.shader_cores2.lsq.lane_port[17] system.gpu.shader_cores2.lsq.lane_port[18] system.gpu.shader_cores2.lsq.lane_port[19] system.gpu.shader_cores2.lsq.lane_port[20] system.gpu.shader_cores2.lsq.lane_port[21] system.gpu.shader_cores2.lsq.lane_port[22] system.gpu.shader_cores2.lsq.lane_port[23] system.gpu.shader_cores2.lsq.lane_port[24] system.gpu.shader_cores2.lsq.lane_port[25] system.gpu.shader_cores2.lsq.lane_port[26] system.gpu.shader_cores2.lsq.lane_port[27] system.gpu.shader_cores2.lsq.lane_port[28] system.gpu.shader_cores2.lsq.lane_port[29] system.gpu.shader_cores2.lsq.lane_port[30] system.gpu.shader_cores2.lsq.lane_port[31]

[system.gpu.shader_cores2.itb]
type=ShaderTLB
access_host_pagetable=false
associativity=4
entries=0
eventq_index=0
gpu=system.gpu
hit_latency=1

[system.gpu.shader_cores2.lsq]
type=ShaderLSQ
children=data_tlb
cache_line_size=128
clk_domain=system.gpu.clk_domain
data_tlb=system.gpu.shader_cores2.lsq.data_tlb
eject_width=1
eventq_index=0
forward_flush=false
inject_width=1
l1_tag_cycles=4
latency=14
num_warp_inst_buffers=64
warp_contexts=48
warp_size=32
cache_port=system.ruby.l1_cntrl_sp02.sequencer.slave[1]
control_port=system.gpu.shader_cores2.lsq_ctrl_port
lane_port=system.gpu.shader_cores2.lsq_port[0] system.gpu.shader_cores2.lsq_port[1] system.gpu.shader_cores2.lsq_port[2] system.gpu.shader_cores2.lsq_port[3] system.gpu.shader_cores2.lsq_port[4] system.gpu.shader_cores2.lsq_port[5] system.gpu.shader_cores2.lsq_port[6] system.gpu.shader_cores2.lsq_port[7] system.gpu.shader_cores2.lsq_port[8] system.gpu.shader_cores2.lsq_port[9] system.gpu.shader_cores2.lsq_port[10] system.gpu.shader_cores2.lsq_port[11] system.gpu.shader_cores2.lsq_port[12] system.gpu.shader_cores2.lsq_port[13] system.gpu.shader_cores2.lsq_port[14] system.gpu.shader_cores2.lsq_port[15] system.gpu.shader_cores2.lsq_port[16] system.gpu.shader_cores2.lsq_port[17] system.gpu.shader_cores2.lsq_port[18] system.gpu.shader_cores2.lsq_port[19] system.gpu.shader_cores2.lsq_port[20] system.gpu.shader_cores2.lsq_port[21] system.gpu.shader_cores2.lsq_port[22] system.gpu.shader_cores2.lsq_port[23] system.gpu.shader_cores2.lsq_port[24] system.gpu.shader_cores2.lsq_port[25] system.gpu.shader_cores2.lsq_port[26] system.gpu.shader_cores2.lsq_port[27] system.gpu.shader_cores2.lsq_port[28] system.gpu.shader_cores2.lsq_port[29] system.gpu.shader_cores2.lsq_port[30] system.gpu.shader_cores2.lsq_port[31]

[system.gpu.shader_cores2.lsq.data_tlb]
type=ShaderTLB
access_host_pagetable=false
associativity=4
entries=0
eventq_index=0
gpu=system.gpu
hit_latency=1

[system.gpu.shader_cores3]
type=CudaCore
children=itb lsq
clk_domain=system.gpu.clk_domain
eventq_index=0
gpu=system.gpu
id=3
itb=system.gpu.shader_cores3.itb
sys=system
warp_contexts=48
inst_port=system.ruby.l1_cntrl_sp03.sequencer.slave[0]
lsq_ctrl_port=system.gpu.shader_cores3.lsq.control_port
lsq_port=system.gpu.shader_cores3.lsq.lane_port[0] system.gpu.shader_cores3.lsq.lane_port[1] system.gpu.shader_cores3.lsq.lane_port[2] system.gpu.shader_cores3.lsq.lane_port[3] system.gpu.shader_cores3.lsq.lane_port[4] system.gpu.shader_cores3.lsq.lane_port[5] system.gpu.shader_cores3.lsq.lane_port[6] system.gpu.shader_cores3.lsq.lane_port[7] system.gpu.shader_cores3.lsq.lane_port[8] system.gpu.shader_cores3.lsq.lane_port[9] system.gpu.shader_cores3.lsq.lane_port[10] system.gpu.shader_cores3.lsq.lane_port[11] system.gpu.shader_cores3.lsq.lane_port[12] system.gpu.shader_cores3.lsq.lane_port[13] system.gpu.shader_cores3.lsq.lane_port[14] system.gpu.shader_cores3.lsq.lane_port[15] system.gpu.shader_cores3.lsq.lane_port[16] system.gpu.shader_cores3.lsq.lane_port[17] system.gpu.shader_cores3.lsq.lane_port[18] system.gpu.shader_cores3.lsq.lane_port[19] system.gpu.shader_cores3.lsq.lane_port[20] system.gpu.shader_cores3.lsq.lane_port[21] system.gpu.shader_cores3.lsq.lane_port[22] system.gpu.shader_cores3.lsq.lane_port[23] system.gpu.shader_cores3.lsq.lane_port[24] system.gpu.shader_cores3.lsq.lane_port[25] system.gpu.shader_cores3.lsq.lane_port[26] system.gpu.shader_cores3.lsq.lane_port[27] system.gpu.shader_cores3.lsq.lane_port[28] system.gpu.shader_cores3.lsq.lane_port[29] system.gpu.shader_cores3.lsq.lane_port[30] system.gpu.shader_cores3.lsq.lane_port[31]

[system.gpu.shader_cores3.itb]
type=ShaderTLB
access_host_pagetable=false
associativity=4
entries=0
eventq_index=0
gpu=system.gpu
hit_latency=1

[system.gpu.shader_cores3.lsq]
type=ShaderLSQ
children=data_tlb
cache_line_size=128
clk_domain=system.gpu.clk_domain
data_tlb=system.gpu.shader_cores3.lsq.data_tlb
eject_width=1
eventq_index=0
forward_flush=false
inject_width=1
l1_tag_cycles=4
latency=14
num_warp_inst_buffers=64
warp_contexts=48
warp_size=32
cache_port=system.ruby.l1_cntrl_sp03.sequencer.slave[1]
control_port=system.gpu.shader_cores3.lsq_ctrl_port
lane_port=system.gpu.shader_cores3.lsq_port[0] system.gpu.shader_cores3.lsq_port[1] system.gpu.shader_cores3.lsq_port[2] system.gpu.shader_cores3.lsq_port[3] system.gpu.shader_cores3.lsq_port[4] system.gpu.shader_cores3.lsq_port[5] system.gpu.shader_cores3.lsq_port[6] system.gpu.shader_cores3.lsq_port[7] system.gpu.shader_cores3.lsq_port[8] system.gpu.shader_cores3.lsq_port[9] system.gpu.shader_cores3.lsq_port[10] system.gpu.shader_cores3.lsq_port[11] system.gpu.shader_cores3.lsq_port[12] system.gpu.shader_cores3.lsq_port[13] system.gpu.shader_cores3.lsq_port[14] system.gpu.shader_cores3.lsq_port[15] system.gpu.shader_cores3.lsq_port[16] system.gpu.shader_cores3.lsq_port[17] system.gpu.shader_cores3.lsq_port[18] system.gpu.shader_cores3.lsq_port[19] system.gpu.shader_cores3.lsq_port[20] system.gpu.shader_cores3.lsq_port[21] system.gpu.shader_cores3.lsq_port[22] system.gpu.shader_cores3.lsq_port[23] system.gpu.shader_cores3.lsq_port[24] system.gpu.shader_cores3.lsq_port[25] system.gpu.shader_cores3.lsq_port[26] system.gpu.shader_cores3.lsq_port[27] system.gpu.shader_cores3.lsq_port[28] system.gpu.shader_cores3.lsq_port[29] system.gpu.shader_cores3.lsq_port[30] system.gpu.shader_cores3.lsq_port[31]

[system.gpu.shader_cores3.lsq.data_tlb]
type=ShaderTLB
access_host_pagetable=false
associativity=4
entries=0
eventq_index=0
gpu=system.gpu
hit_latency=1

[system.gpu.shader_mmu]
type=ShaderMMU
children=pagewalkers00 pagewalkers01 pagewalkers02 pagewalkers03 pagewalkers04 pagewalkers05 pagewalkers06 pagewalkers07 pagewalkers08 pagewalkers09 pagewalkers10 pagewalkers11 pagewalkers12 pagewalkers13 pagewalkers14 pagewalkers15 pagewalkers16 pagewalkers17 pagewalkers18 pagewalkers19 pagewalkers20 pagewalkers21 pagewalkers22 pagewalkers23 pagewalkers24 pagewalkers25 pagewalkers26 pagewalkers27 pagewalkers28 pagewalkers29 pagewalkers30 pagewalkers31
clk_domain=system.gpu.clk_domain
eventq_index=0
l2_tlb_assoc=4
l2_tlb_entries=0
latency=20
pagewalkers=system.gpu.shader_mmu.pagewalkers00 system.gpu.shader_mmu.pagewalkers01 system.gpu.shader_mmu.pagewalkers02 system.gpu.shader_mmu.pagewalkers03 system.gpu.shader_mmu.pagewalkers04 system.gpu.shader_mmu.pagewalkers05 system.gpu.shader_mmu.pagewalkers06 system.gpu.shader_mmu.pagewalkers07 system.gpu.shader_mmu.pagewalkers08 system.gpu.shader_mmu.pagewalkers09 system.gpu.shader_mmu.pagewalkers10 system.gpu.shader_mmu.pagewalkers11 system.gpu.shader_mmu.pagewalkers12 system.gpu.shader_mmu.pagewalkers13 system.gpu.shader_mmu.pagewalkers14 system.gpu.shader_mmu.pagewalkers15 system.gpu.shader_mmu.pagewalkers16 system.gpu.shader_mmu.pagewalkers17 system.gpu.shader_mmu.pagewalkers18 system.gpu.shader_mmu.pagewalkers19 system.gpu.shader_mmu.pagewalkers20 system.gpu.shader_mmu.pagewalkers21 system.gpu.shader_mmu.pagewalkers22 system.gpu.shader_mmu.pagewalkers23 system.gpu.shader_mmu.pagewalkers24 system.gpu.shader_mmu.pagewalkers25 system.gpu.shader_mmu.pagewalkers26 system.gpu.shader_mmu.pagewalkers27 system.gpu.shader_mmu.pagewalkers28 system.gpu.shader_mmu.pagewalkers29 system.gpu.shader_mmu.pagewalkers30 system.gpu.shader_mmu.pagewalkers31
prefetch_buffer_size=0

[system.gpu.shader_mmu.pagewalkers00]
type=X86TLB
children=walker
eventq_index=0
size=1
walker=system.gpu.shader_mmu.pagewalkers00.walker

[system.gpu.shader_mmu.pagewalkers00.walker]
type=X86PagetableWalker
bypass_l1=false
clk_domain=system.gpu.clk_domain
eventq_index=0
num_squash_per_cycle=4
system=system
port=system.ruby.l1_pw_cntrl.sequencer.slave[0]

[system.gpu.shader_mmu.pagewalkers01]
type=X86TLB
children=walker
eventq_index=0
size=1
walker=system.gpu.shader_mmu.pagewalkers01.walker

[system.gpu.shader_mmu.pagewalkers01.walker]
type=X86PagetableWalker
bypass_l1=false
clk_domain=system.gpu.clk_domain
eventq_index=0
num_squash_per_cycle=4
system=system
port=system.ruby.l1_pw_cntrl.sequencer.slave[1]

[system.gpu.shader_mmu.pagewalkers02]
type=X86TLB
children=walker
eventq_index=0
size=1
walker=system.gpu.shader_mmu.pagewalkers02.walker

[system.gpu.shader_mmu.pagewalkers02.walker]
type=X86PagetableWalker
bypass_l1=false
clk_domain=system.gpu.clk_domain
eventq_index=0
num_squash_per_cycle=4
system=system
port=system.ruby.l1_pw_cntrl.sequencer.slave[2]

[system.gpu.shader_mmu.pagewalkers03]
type=X86TLB
children=walker
eventq_index=0
size=1
walker=system.gpu.shader_mmu.pagewalkers03.walker

[system.gpu.shader_mmu.pagewalkers03.walker]
type=X86PagetableWalker
bypass_l1=false
clk_domain=system.gpu.clk_domain
eventq_index=0
num_squash_per_cycle=4
system=system
port=system.ruby.l1_pw_cntrl.sequencer.slave[3]

[system.gpu.shader_mmu.pagewalkers04]
type=X86TLB
children=walker
eventq_index=0
size=1
walker=system.gpu.shader_mmu.pagewalkers04.walker

[system.gpu.shader_mmu.pagewalkers04.walker]
type=X86PagetableWalker
bypass_l1=false
clk_domain=system.gpu.clk_domain
eventq_index=0
num_squash_per_cycle=4
system=system
port=system.ruby.l1_pw_cntrl.sequencer.slave[4]

[system.gpu.shader_mmu.pagewalkers05]
type=X86TLB
children=walker
eventq_index=0
size=1
walker=system.gpu.shader_mmu.pagewalkers05.walker

[system.gpu.shader_mmu.pagewalkers05.walker]
type=X86PagetableWalker
bypass_l1=false
clk_domain=system.gpu.clk_domain
eventq_index=0
num_squash_per_cycle=4
system=system
port=system.ruby.l1_pw_cntrl.sequencer.slave[5]

[system.gpu.shader_mmu.pagewalkers06]
type=X86TLB
children=walker
eventq_index=0
size=1
walker=system.gpu.shader_mmu.pagewalkers06.walker

[system.gpu.shader_mmu.pagewalkers06.walker]
type=X86PagetableWalker
bypass_l1=false
clk_domain=system.gpu.clk_domain
eventq_index=0
num_squash_per_cycle=4
system=system
port=system.ruby.l1_pw_cntrl.sequencer.slave[6]

[system.gpu.shader_mmu.pagewalkers07]
type=X86TLB
children=walker
eventq_index=0
size=1
walker=system.gpu.shader_mmu.pagewalkers07.walker

[system.gpu.shader_mmu.pagewalkers07.walker]
type=X86PagetableWalker
bypass_l1=false
clk_domain=system.gpu.clk_domain
eventq_index=0
num_squash_per_cycle=4
system=system
port=system.ruby.l1_pw_cntrl.sequencer.slave[7]

[system.gpu.shader_mmu.pagewalkers08]
type=X86TLB
children=walker
eventq_index=0
size=1
walker=system.gpu.shader_mmu.pagewalkers08.walker

[system.gpu.shader_mmu.pagewalkers08.walker]
type=X86PagetableWalker
bypass_l1=false
clk_domain=system.gpu.clk_domain
eventq_index=0
num_squash_per_cycle=4
system=system
port=system.ruby.l1_pw_cntrl.sequencer.slave[8]

[system.gpu.shader_mmu.pagewalkers09]
type=X86TLB
children=walker
eventq_index=0
size=1
walker=system.gpu.shader_mmu.pagewalkers09.walker

[system.gpu.shader_mmu.pagewalkers09.walker]
type=X86PagetableWalker
bypass_l1=false
clk_domain=system.gpu.clk_domain
eventq_index=0
num_squash_per_cycle=4
system=system
port=system.ruby.l1_pw_cntrl.sequencer.slave[9]

[system.gpu.shader_mmu.pagewalkers10]
type=X86TLB
children=walker
eventq_index=0
size=1
walker=system.gpu.shader_mmu.pagewalkers10.walker

[system.gpu.shader_mmu.pagewalkers10.walker]
type=X86PagetableWalker
bypass_l1=false
clk_domain=system.gpu.clk_domain
eventq_index=0
num_squash_per_cycle=4
system=system
port=system.ruby.l1_pw_cntrl.sequencer.slave[10]

[system.gpu.shader_mmu.pagewalkers11]
type=X86TLB
children=walker
eventq_index=0
size=1
walker=system.gpu.shader_mmu.pagewalkers11.walker

[system.gpu.shader_mmu.pagewalkers11.walker]
type=X86PagetableWalker
bypass_l1=false
clk_domain=system.gpu.clk_domain
eventq_index=0
num_squash_per_cycle=4
system=system
port=system.ruby.l1_pw_cntrl.sequencer.slave[11]

[system.gpu.shader_mmu.pagewalkers12]
type=X86TLB
children=walker
eventq_index=0
size=1
walker=system.gpu.shader_mmu.pagewalkers12.walker

[system.gpu.shader_mmu.pagewalkers12.walker]
type=X86PagetableWalker
bypass_l1=false
clk_domain=system.gpu.clk_domain
eventq_index=0
num_squash_per_cycle=4
system=system
port=system.ruby.l1_pw_cntrl.sequencer.slave[12]

[system.gpu.shader_mmu.pagewalkers13]
type=X86TLB
children=walker
eventq_index=0
size=1
walker=system.gpu.shader_mmu.pagewalkers13.walker

[system.gpu.shader_mmu.pagewalkers13.walker]
type=X86PagetableWalker
bypass_l1=false
clk_domain=system.gpu.clk_domain
eventq_index=0
num_squash_per_cycle=4
system=system
port=system.ruby.l1_pw_cntrl.sequencer.slave[13]

[system.gpu.shader_mmu.pagewalkers14]
type=X86TLB
children=walker
eventq_index=0
size=1
walker=system.gpu.shader_mmu.pagewalkers14.walker

[system.gpu.shader_mmu.pagewalkers14.walker]
type=X86PagetableWalker
bypass_l1=false
clk_domain=system.gpu.clk_domain
eventq_index=0
num_squash_per_cycle=4
system=system
port=system.ruby.l1_pw_cntrl.sequencer.slave[14]

[system.gpu.shader_mmu.pagewalkers15]
type=X86TLB
children=walker
eventq_index=0
size=1
walker=system.gpu.shader_mmu.pagewalkers15.walker

[system.gpu.shader_mmu.pagewalkers15.walker]
type=X86PagetableWalker
bypass_l1=false
clk_domain=system.gpu.clk_domain
eventq_index=0
num_squash_per_cycle=4
system=system
port=system.ruby.l1_pw_cntrl.sequencer.slave[15]

[system.gpu.shader_mmu.pagewalkers16]
type=X86TLB
children=walker
eventq_index=0
size=1
walker=system.gpu.shader_mmu.pagewalkers16.walker

[system.gpu.shader_mmu.pagewalkers16.walker]
type=X86PagetableWalker
bypass_l1=false
clk_domain=system.gpu.clk_domain
eventq_index=0
num_squash_per_cycle=4
system=system
port=system.ruby.l1_pw_cntrl.sequencer.slave[16]

[system.gpu.shader_mmu.pagewalkers17]
type=X86TLB
children=walker
eventq_index=0
size=1
walker=system.gpu.shader_mmu.pagewalkers17.walker

[system.gpu.shader_mmu.pagewalkers17.walker]
type=X86PagetableWalker
bypass_l1=false
clk_domain=system.gpu.clk_domain
eventq_index=0
num_squash_per_cycle=4
system=system
port=system.ruby.l1_pw_cntrl.sequencer.slave[17]

[system.gpu.shader_mmu.pagewalkers18]
type=X86TLB
children=walker
eventq_index=0
size=1
walker=system.gpu.shader_mmu.pagewalkers18.walker

[system.gpu.shader_mmu.pagewalkers18.walker]
type=X86PagetableWalker
bypass_l1=false
clk_domain=system.gpu.clk_domain
eventq_index=0
num_squash_per_cycle=4
system=system
port=system.ruby.l1_pw_cntrl.sequencer.slave[18]

[system.gpu.shader_mmu.pagewalkers19]
type=X86TLB
children=walker
eventq_index=0
size=1
walker=system.gpu.shader_mmu.pagewalkers19.walker

[system.gpu.shader_mmu.pagewalkers19.walker]
type=X86PagetableWalker
bypass_l1=false
clk_domain=system.gpu.clk_domain
eventq_index=0
num_squash_per_cycle=4
system=system
port=system.ruby.l1_pw_cntrl.sequencer.slave[19]

[system.gpu.shader_mmu.pagewalkers20]
type=X86TLB
children=walker
eventq_index=0
size=1
walker=system.gpu.shader_mmu.pagewalkers20.walker

[system.gpu.shader_mmu.pagewalkers20.walker]
type=X86PagetableWalker
bypass_l1=false
clk_domain=system.gpu.clk_domain
eventq_index=0
num_squash_per_cycle=4
system=system
port=system.ruby.l1_pw_cntrl.sequencer.slave[20]

[system.gpu.shader_mmu.pagewalkers21]
type=X86TLB
children=walker
eventq_index=0
size=1
walker=system.gpu.shader_mmu.pagewalkers21.walker

[system.gpu.shader_mmu.pagewalkers21.walker]
type=X86PagetableWalker
bypass_l1=false
clk_domain=system.gpu.clk_domain
eventq_index=0
num_squash_per_cycle=4